
 *******************************************************************************

         NASA-GLENN CHEMICAL EQUILIBRIUM PROGRAM CEA, JUNE 21, 2002
                   BY  BONNIE MCBRIDE AND SANFORD GORDON
      REFS: NASA RP-1311, PART I, 1994 AND NASA RP-1311, PART II, 1996

 *******************************************************************************



 # tmp.inp generated by CEAGas
 problem case=CEAGas tp
    p(bar)      2.326059e+02
    t(k)        3.831800e+03
 react
    name= H2  moles=0.467
    name= O2  moles=0.233
    name= Ar  moles=0.3
 only H2 H O2 O OH H2O H2O2 HO2 Ar
 output massf trace=1.000000e-10
 end

 OPTIONS: TP=T  HP=F  SP=F  TV=F  UV=F  SV=F  DETN=F  SHOCK=F  REFL=F  INCD=F
 RKT=F  FROZ=F  EQL=F  IONS=F  SIUNIT=T  DEBUGF=F  SHKDBG=F  DETDBG=F  TRNSPT=F

 T,K =  3831.8000

 TRACE= 1.00E-10  S/R= 0.000000E+00  H/R= 0.000000E+00  U/R= 0.000000E+00

 P,BAR =   232.605900

    REACTANT           MOLES    (ENERGY/R),K   TEMP,K  DENSITY
        EXPLODED FORMULA
 N: H2               0.467000   0.000000E+00     0.00  0.0000
          H  2.00000
 N: O2               0.233000   0.000000E+00     0.00  0.0000
          O  2.00000
 N: Ar               0.300000   0.000000E+00     0.00  0.0000
          AR 1.00000

  SPECIES BEING CONSIDERED IN THIS SYSTEM
 (CONDENSED PHASE MAY HAVE NAME LISTED SEVERAL TIMES)
  LAST thermo.inp UPDATE:    5/03/02

  g 3/98  *Ar              g 6/97  *H               g 4/02  HO2            
  tpis78  *H2              g 8/89  H2O              g 6/99  H2O2           
  g 5/97  *O               g 4/02  *OH              tpis89  *O2            

 O/F =   0.000000

                       EFFECTIVE FUEL     EFFECTIVE OXIDANT        MIXTURE
 ENTHALPY                  h(2)/R              h(1)/R               h0/R
 (KG-MOL)(K)/KG        0.00000000E+00      0.00000000E+00      0.00000000E+00

 KG-FORM.WT./KG             bi(2)               bi(1)               b0i
  *H                   0.45825790E-01      0.00000000E+00      0.45825790E-01
  *O                   0.22863831E-01      0.00000000E+00      0.22863831E-01
  *Ar                  0.14719204E-01      0.00000000E+00      0.14719204E-01

 POINT ITN      T            H           O           AR
   1    9    3831.800      -9.418     -14.834     -18.272




               THERMODYNAMIC EQUILIBRIUM PROPERTIES AT ASSIGNED

                           TEMPERATURE AND PRESSURE

 CASE = CEAGas         

             REACTANT                       MOLES         ENERGY      TEMP
                                                         KJ/KG-MOL      K
 NAME        H2                           0.4670000         0.000      0.000
 NAME        O2                           0.2330000         0.000      0.000
 NAME        Ar                           0.3000000         0.000      0.000

 O/F=    0.00000  %FUEL=  0.000000  R,EQ.RATIO= 1.002146  PHI,EQ.RATIO= 0.000000

 THERMODYNAMIC PROPERTIES

 P, BAR            232.61
 T, K             3831.80
 RHO, KG/CU M     1.7901 1
 H, KJ/KG         1248.79
 U, KJ/KG         -50.622
 G, KJ/KG        -33124.0
 S, KJ/(KG)(K)     8.9704

 M, (1/n)          24.518
 (dLV/dLP)t      -1.02998
 (dLV/dLT)p        1.4862
 Cp, KJ/(KG)(K)    4.3571
 GAMMAs            1.1654
 SON VEL,M/SEC     1230.6

 MASS FRACTIONS

 *Ar              5.8800-1
 *H               8.8875-4
 HO2              2.8185-4
 *H2              6.4625-3
 H2O              3.2141-1
 H2O2             6.3475-5
 *O               6.6358-3
 *OH              4.8273-2
 *O2              2.7983-2

  * THERMODYNAMIC PROPERTIES FITTED TO 20000.K

    PRODUCTS WHICH WERE CONSIDERED BUT WHOSE MASS FRACTIONS
    WERE LESS THAN 1.000000E-10 FOR ALL ASSIGNED CONDITIONS





