
 *******************************************************************************

         NASA-GLENN CHEMICAL EQUILIBRIUM PROGRAM CEA, JUNE 21, 2002
                   BY  BONNIE MCBRIDE AND SANFORD GORDON
      REFS: NASA RP-1311, PART I, 1994 AND NASA RP-1311, PART II, 1996

 *******************************************************************************



 # tmp.inp generated by CEAGas
 problem case=CEAGas tv ions
    rho,kg/m**3 2.024930e-01
    t(k)        3.512550e+03
 react
    name= N2  moles=0.79
    name= O2  moles=0.21
 only N2 O2 NO N2O NO2 N O NO+ N2+ O2+ N+ N- O+ O- e-
 output massf trace=1.000000e-06 trans
 end

 OPTIONS: TP=T  HP=F  SP=F  TV=T  UV=F  SV=F  DETN=F  SHOCK=F  REFL=F  INCD=F
 RKT=F  FROZ=F  EQL=F  IONS=T  SIUNIT=T  DEBUGF=F  SHKDBG=F  DETDBG=F  TRNSPT=T

 T,K =  3512.5500

 TRACE= 1.00E-06  S/R= 0.000000E+00  H/R= 0.000000E+00  U/R= 0.000000E+00

 SPECIFIC VOLUME,M**3/KG = 4.9384423E+00

    REACTANT           MOLES    (ENERGY/R),K   TEMP,K  DENSITY
        EXPLODED FORMULA
 N: N2               0.790000   0.000000E+00     0.00  0.0000
          N  2.00000
 N: O2               0.210000   0.000000E+00     0.00  0.0000
          O  2.00000

  SPECIES BEING CONSIDERED IN THIS SYSTEM
 (CONDENSED PHASE MAY HAVE NAME LISTED SEVERAL TIMES)
  LAST thermo.inp UPDATE:    5/03/02

  g12/98  *e-              g 5/97  *N               g 6/97  *N+            
  j12/82  *N-              tpis89  *NO              g 5/99  *NO+           
  g 4/99  NO2              tpis78  *N2              tpis89  *N2+           
  g 4/99  N2O              g 5/97  *O               g 8/97  *O+            
  g 1/97  *O-              tpis89  *O2              tpis89  *O2+           

 SPECIES WITH TRANSPORT PROPERTIES

        PURE SPECIES

  e-                N                 NO                NO2             
  N2                N2O             
  O                 O2              

     BINARY INTERACTIONS

     e-              N               
     e-              NO              
     e-              N2              
     e-              O               
     e-              O2              
     N               N+              
     N               NO              
     N               N2              
     N               O               
     N               O+              
     N               O2              
     N+              O               
     NO              O               
     N2              O               
     N2              O2              
     O               O+              
     O               O2              


 O/F =   0.000000

                       EFFECTIVE FUEL     EFFECTIVE OXIDANT        MIXTURE
 INTERNAL ENERGY           u(2)/R              u(1)/R              u0/R
 (KG-MOL)(K)/KG        0.00000000E+00      0.00000000E+00      0.00000000E+00

 KG-FORM.WT./KG             bi(2)               bi(1)               b0i
  *N                   0.54765277E-01      0.00000000E+00      0.54765277E-01
  *O                   0.14557858E-01      0.00000000E+00      0.14557858E-01
  *e-                  0.00000000E+00      0.00000000E+00      0.00000000E+00

 POINT ITN      T            N           O           E 
   1   15    3512.550     -14.267     -16.165     -20.515




               THERMODYNAMIC EQUILIBRIUM PROPERTIES AT ASSIGNED

                            TEMPERATURE AND VOLUME

 CASE = CEAGas         

             REACTANT                       MOLES         ENERGY      TEMP
                                                         KJ/KG-MOL      K
 NAME        N2                           0.7900000         0.000      0.000
 NAME        O2                           0.2100000         0.000      0.000

 O/F=    0.00000  %FUEL=  0.000000  R,EQ.RATIO= 0.000000  PHI,EQ.RATIO= 0.000000

 THERMODYNAMIC PROPERTIES

 P, BAR            2.1754
 T, K             3512.55
 RHO, KG/CU M     2.0249-1
 H, KJ/KG         5206.78
 U, KJ/KG         4132.46
 G, KJ/KG        -29692.1
 S, KJ/(KG)(K)     9.9355

 M, (1/n)          27.185
 (dLV/dLP)t      -1.02407
 (dLV/dLT)p        1.4078
 Cp, KJ/(KG)(K)    3.5807
 GAMMAs            1.1699
 SON VEL,M/SEC     1121.1

 TRANSPORT PROPERTIES (GASES ONLY)
   CONDUCTIVITY IN UNITS OF MILLIWATTS/(CM)(K)

 VISC,MILLIPOISE   1.0557

  WITH EQUILIBRIUM REACTIONS

 Cp, KJ/(KG)(K)    3.5807
 CONDUCTIVITY      6.2655
 PRANDTL NUMBER    0.6033

  WITH FROZEN REACTIONS

 Cp, KJ/(KG)(K)    1.3200
 CONDUCTIVITY      1.9331
 PRANDTL NUMBER    0.7209

 MASS FRACTIONS

 *N               6.9436-5
 *NO              6.2327-2
 NO2              4.4318-5
 *N2              7.3790-1
 N2O              7.5617-6
 *O               6.7893-2
 *O2              1.3176-1

  * THERMODYNAMIC PROPERTIES FITTED TO 20000.K

    PRODUCTS WHICH WERE CONSIDERED BUT WHOSE MASS FRACTIONS
    WERE LESS THAN 1.000000E-06 FOR ALL ASSIGNED CONDITIONS

 *e-             *N+             *N-             *NO+            *N2+           
 *O+             *O-             *O2+           



