
 *******************************************************************************

         NASA-GLENN CHEMICAL EQUILIBRIUM PROGRAM CEA, JUNE 21, 2002
                   BY  BONNIE MCBRIDE AND SANFORD GORDON
      REFS: NASA RP-1311, PART I, 1994 AND NASA RP-1311, PART II, 1996

 *******************************************************************************



 # tmp.inp generated by CEAGas
 problem case=CEAGas tv ions
    rho,kg/m**3 2.426289e-02
    t(k)        7.466738e+03
 react
    name= N2  moles=0.79
    name= O2  moles=0.21
 only N2 O2 NO N2O NO2 N O NO+ N2+ O2+ N+ N- O+ O- e-
 output massf trace=1.000000e-06 trans
 end

 OPTIONS: TP=T  HP=F  SP=F  TV=T  UV=F  SV=F  DETN=F  SHOCK=F  REFL=F  INCD=F
 RKT=F  FROZ=F  EQL=F  IONS=T  SIUNIT=T  DEBUGF=F  SHKDBG=F  DETDBG=F  TRNSPT=T

 T,K =  7466.7380

 TRACE= 1.00E-06  S/R= 0.000000E+00  H/R= 0.000000E+00  U/R= 0.000000E+00

 SPECIFIC VOLUME,M**3/KG = 4.1215206E+01

    REACTANT           MOLES    (ENERGY/R),K   TEMP,K  DENSITY
        EXPLODED FORMULA
 N: N2               0.790000   0.000000E+00     0.00  0.0000
          N  2.00000
 N: O2               0.210000   0.000000E+00     0.00  0.0000
          O  2.00000

  SPECIES BEING CONSIDERED IN THIS SYSTEM
 (CONDENSED PHASE MAY HAVE NAME LISTED SEVERAL TIMES)
  LAST thermo.inp UPDATE:    5/03/02

  g12/98  *e-              g 5/97  *N               g 6/97  *N+            
  j12/82  *N-              tpis89  *NO              g 5/99  *NO+           
  g 4/99  NO2              tpis78  *N2              tpis89  *N2+           
  g 4/99  N2O              g 5/97  *O               g 8/97  *O+            
  g 1/97  *O-              tpis89  *O2              tpis89  *O2+           

 SPECIES WITH TRANSPORT PROPERTIES

        PURE SPECIES

  e-                N                 NO                NO2             
  N2                N2O             
  O                 O2              

     BINARY INTERACTIONS

     e-              N               
     e-              NO              
     e-              N2              
     e-              O               
     e-              O2              
     N               N+              
     N               NO              
     N               N2              
     N               O               
     N               O+              
     N               O2              
     N+              O               
     NO              O               
     N2              O               
     N2              O2              
     O               O+              
     O               O2              


 O/F =   0.000000

                       EFFECTIVE FUEL     EFFECTIVE OXIDANT        MIXTURE
 INTERNAL ENERGY           u(2)/R              u(1)/R              u0/R
 (KG-MOL)(K)/KG        0.00000000E+00      0.00000000E+00      0.00000000E+00

 KG-FORM.WT./KG             bi(2)               bi(1)               b0i
  *N                   0.54765277E-01      0.00000000E+00      0.54765277E-01
  *O                   0.14557858E-01      0.00000000E+00      0.14557858E-01
  *e-                  0.00000000E+00      0.00000000E+00      0.00000000E+00

 POINT ITN      T            N           O           E 
   1   11    7466.738     -17.077     -22.632     -14.957




               THERMODYNAMIC EQUILIBRIUM PROPERTIES AT ASSIGNED

                            TEMPERATURE AND VOLUME

 CASE = CEAGas         

             REACTANT                       MOLES         ENERGY      TEMP
                                                         KJ/KG-MOL      K
 NAME        N2                           0.7900000         0.000      0.000
 NAME        O2                           0.2100000         0.000      0.000

 O/F=    0.00000  %FUEL=  0.000000  R,EQ.RATIO= 0.000000  PHI,EQ.RATIO= 0.000000

 THERMODYNAMIC PROPERTIES

 P, BAR           0.92456
 T, K             7466.74
 RHO, KG/CU M     2.4263-2
 H, KJ/KG         32789.0
 U, KJ/KG         28978.4
 G, KJ/KG        -78516.9
 S, KJ/(KG)(K)    14.9069

 M, (1/n)          16.292
 (dLV/dLP)t      -1.07818
 (dLV/dLT)p        2.2707
 Cp, KJ/(KG)(K)   12.3304
 GAMMAs            1.1564
 SON VEL,M/SEC     2099.2

 TRANSPORT PROPERTIES (GASES ONLY)
   CONDUCTIVITY IN UNITS OF MILLIWATTS/(CM)(K)

 VISC,MILLIPOISE   2.0849

  WITH EQUILIBRIUM REACTIONS

 Cp, KJ/(KG)(K)   12.3304
 CONDUCTIVITY     30.6475
 PRANDTL NUMBER    0.8388

  WITH FROZEN REACTIONS

 Cp, KJ/(KG)(K)    1.7489
 CONDUCTIVITY      4.9341
 PRANDTL NUMBER    0.7390

 MASS FRACTIONS

 *N               5.4359-1
 *N+              5.0945-4
 *NO              2.6946-3
 *NO+             7.4566-4
 *N2              2.2131-1
 *N2+             6.4494-5
 *O               2.3086-1
 *O+              1.8773-4
 *O2              3.3910-5

  * THERMODYNAMIC PROPERTIES FITTED TO 20000.K

    PRODUCTS WHICH WERE CONSIDERED BUT WHOSE MASS FRACTIONS
    WERE LESS THAN 1.000000E-06 FOR ALL ASSIGNED CONDITIONS

 *e-             *N-             NO2             N2O             *O-            
 *O2+           



