
 *******************************************************************************

         NASA-GLENN CHEMICAL EQUILIBRIUM PROGRAM CEA, JUNE 21, 2002
                   BY  BONNIE MCBRIDE AND SANFORD GORDON
      REFS: NASA RP-1311, PART I, 1994 AND NASA RP-1311, PART II, 1996

 *******************************************************************************



 # tmp.inp generated by CEAGas
 problem case=CEAGas tp
    p(bar)      1.926088e+02
    t(k)        3.957519e+03
 react
    name= H2  moles=0.3
    name= O2  moles=0.15
    name= Ar  moles=0.55
 only H2 O2 Ar
 output massf trace=1.000000e-10
 end

 OPTIONS: TP=T  HP=F  SP=F  TV=F  UV=F  SV=F  DETN=F  SHOCK=F  REFL=F  INCD=F
 RKT=F  FROZ=F  EQL=F  IONS=F  SIUNIT=T  DEBUGF=F  SHKDBG=F  DETDBG=F  TRNSPT=F

 T,K =  3957.5190

 TRACE= 1.00E-10  S/R= 0.000000E+00  H/R= 0.000000E+00  U/R= 0.000000E+00

 P,BAR =   192.608800

    REACTANT           MOLES    (ENERGY/R),K   TEMP,K  DENSITY
        EXPLODED FORMULA
 N: H2               0.300000   0.000000E+00     0.00  0.0000
          H  2.00000
 N: O2               0.150000   0.000000E+00     0.00  0.0000
          O  2.00000
 N: Ar               0.550000   0.000000E+00     0.00  0.0000
          AR 1.00000

  SPECIES BEING CONSIDERED IN THIS SYSTEM
 (CONDENSED PHASE MAY HAVE NAME LISTED SEVERAL TIMES)
  LAST thermo.inp UPDATE:    5/03/02

  g 3/98  *Ar              tpis78  *H2              tpis89  *O2            

 O/F =   0.000000

                       EFFECTIVE FUEL     EFFECTIVE OXIDANT        MIXTURE
 ENTHALPY                  h(2)/R              h(1)/R               h0/R
 (KG-MOL)(K)/KG        0.00000000E+00      0.00000000E+00      0.00000000E+00

 KG-FORM.WT./KG             bi(2)               bi(1)               b0i
  H                    0.21917020E-01      0.00000000E+00      0.21917020E-01
  O                    0.10958510E-01      0.00000000E+00      0.10958510E-01
  *Ar                  0.20090602E-01      0.00000000E+00      0.20090602E-01

 POINT ITN      T            H           O           AR
   1    8    3957.519      -8.904     -14.023     -18.114




               THERMODYNAMIC EQUILIBRIUM PROPERTIES AT ASSIGNED

                           TEMPERATURE AND PRESSURE

 CASE = CEAGas         

             REACTANT                       MOLES         ENERGY      TEMP
                                                         KJ/KG-MOL      K
 NAME        H2                           0.3000000         0.000      0.000
 NAME        O2                           0.1500000         0.000      0.000
 NAME        Ar                           0.5500000         0.000      0.000

 O/F=    0.00000  %FUEL=  0.000000  R,EQ.RATIO= 1.000000  PHI,EQ.RATIO= 0.000000

 THERMODYNAMIC PROPERTIES

 P, BAR            192.61
 T, K             3957.52
 RHO, KG/CU M     1.6025 1
 H, KJ/KG         3652.00
 U, KJ/KG         2450.04
 G, KJ/KG        -23452.1
 S, KJ/(KG)(K)     6.8488

 M, (1/n)          27.376
 (dLV/dLP)t      -1.00000
 (dLV/dLT)p        1.0000
 Cp, KJ/(KG)(K)    1.0733
 GAMMAs            1.3947
 SON VEL,M/SEC     1294.7

 MASS FRACTIONS

 *Ar              8.0258-1
 *H2              2.2091-2
 *O2              1.7533-1

  * THERMODYNAMIC PROPERTIES FITTED TO 20000.K

    PRODUCTS WHICH WERE CONSIDERED BUT WHOSE MASS FRACTIONS
    WERE LESS THAN 1.000000E-10 FOR ALL ASSIGNED CONDITIONS





