
 *******************************************************************************

         NASA-GLENN CHEMICAL EQUILIBRIUM PROGRAM CEA, JUNE 21, 2002
                   BY  BONNIE MCBRIDE AND SANFORD GORDON
      REFS: NASA RP-1311, PART I, 1994 AND NASA RP-1311, PART II, 1996

 *******************************************************************************



 # tmp.inp generated by CEAGas
 problem case=CEAGas tp
    p(bar)      1.981762e+02
    t(k)        4.107100e+03
 react
    name= H2  moles=0.47
    name= O2  moles=0.23
    name= Ar  moles=0.3
 only H2 H O2 O OH H2O H2O2 HO2 Ar
 output massf trace=1.000000e-10
 end

 OPTIONS: TP=T  HP=F  SP=F  TV=F  UV=F  SV=F  DETN=F  SHOCK=F  REFL=F  INCD=F
 RKT=F  FROZ=F  EQL=F  IONS=F  SIUNIT=T  DEBUGF=F  SHKDBG=F  DETDBG=F  TRNSPT=F

 T,K =  4107.1000

 TRACE= 1.00E-10  S/R= 0.000000E+00  H/R= 0.000000E+00  U/R= 0.000000E+00

 P,BAR =   198.176200

    REACTANT           MOLES    (ENERGY/R),K   TEMP,K  DENSITY
        EXPLODED FORMULA
 N: H2               0.470000   0.000000E+00     0.00  0.0000
          H  2.00000
 N: O2               0.230000   0.000000E+00     0.00  0.0000
          O  2.00000
 N: Ar               0.300000   0.000000E+00     0.00  0.0000
          AR 1.00000

  SPECIES BEING CONSIDERED IN THIS SYSTEM
 (CONDENSED PHASE MAY HAVE NAME LISTED SEVERAL TIMES)
  LAST thermo.inp UPDATE:    5/03/02

  g 3/98  *Ar              g 6/97  *H               g 4/02  HO2            
  tpis78  *H2              g 8/89  H2O              g 6/99  H2O2           
  g 5/97  *O               g 4/02  *OH              tpis89  *O2            

 O/F =   0.000000

                       EFFECTIVE FUEL     EFFECTIVE OXIDANT        MIXTURE
 ENTHALPY                  h(2)/R              h(1)/R               h0/R
 (KG-MOL)(K)/KG        0.00000000E+00      0.00000000E+00      0.00000000E+00

 KG-FORM.WT./KG             bi(2)               bi(1)               b0i
  *H                   0.46324616E-01      0.00000000E+00      0.46324616E-01
  *O                   0.22669493E-01      0.00000000E+00      0.22669493E-01
  *Ar                  0.14784452E-01      0.00000000E+00      0.14784452E-01

 POINT ITN      T            H           O           AR
   1    9    4107.100      -9.466     -14.971     -18.640




               THERMODYNAMIC EQUILIBRIUM PROPERTIES AT ASSIGNED

                           TEMPERATURE AND PRESSURE

 CASE = CEAGas         

             REACTANT                       MOLES         ENERGY      TEMP
                                                         KJ/KG-MOL      K
 NAME        H2                           0.4700000         0.000      0.000
 NAME        O2                           0.2300000         0.000      0.000
 NAME        Ar                           0.3000000         0.000      0.000

 O/F=    0.00000  %FUEL=  0.000000  R,EQ.RATIO= 1.021739  PHI,EQ.RATIO= 0.000000

 THERMODYNAMIC PROPERTIES

 P, BAR            198.18
 T, K             4107.10
 RHO, KG/CU M     1.3510 1
 H, KJ/KG         2738.78
 U, KJ/KG         1271.85
 G, KJ/KG        -35975.2
 S, KJ/(KG)(K)     9.4261

 M, (1/n)          23.279
 (dLV/dLP)t      -1.04766
 (dLV/dLT)p        1.7114
 Cp, KJ/(KG)(K)    5.5044
 GAMMAs            1.1660
 SON VEL,M/SEC     1307.9

 MASS FRACTIONS

 *Ar              5.9061-1
 *H               1.9442-3
 HO2              3.9315-4
 *H2              9.4456-3
 H2O              2.7831-1
 H2O2             7.0403-5
 *O               1.4201-2
 *OH              6.9924-2
 *O2              3.5103-2

  * THERMODYNAMIC PROPERTIES FITTED TO 20000.K

    PRODUCTS WHICH WERE CONSIDERED BUT WHOSE MASS FRACTIONS
    WERE LESS THAN 1.000000E-10 FOR ALL ASSIGNED CONDITIONS





